Test_Network/condensed/network_17/Feeder_1/Loads - Copy.txt
New Load.LOAD1 Phases=1 Bus1=102.2 kV=0.23 kW=1 PF=0.95
New Load.LOAD2 Phases=1 Bus1=104.3 kV=0.23 kW=1 PF=0.95
New Load.LOAD3 Phases=1 Bus1=141.3 kV=0.23 kW=1 PF=0.95
New Load.LOAD4 Phases=1 Bus1=212.2 kV=0.23 kW=1 PF=0.95
New Load.LOAD5 Phases=1 Bus1=217.1 kV=0.23 kW=1 PF=0.95
New Load.LOAD6 Phases=1 Bus1=228.3 kV=0.23 kW=1 PF=0.95
New Load.LOAD7 Phases=1 Bus1=232.2 kV=0.23 kW=1 PF=0.95
New Load.LOAD8 Phases=1 Bus1=258.3 kV=0.23 kW=1 PF=0.95
New Load.LOAD9 Phases=1 Bus1=267.2 kV=0.23 kW=1 PF=0.95
New Load.LOAD10 Phases=1 Bus1=281.1 kV=0.23 kW=1 PF=0.95
New Load.LOAD11 Phases=1 Bus1=296.1 kV=0.23 kW=1 PF=0.95
New Load.LOAD12 Phases=1 Bus1=310.2 kV=0.23 kW=1 PF=0.95
New Load.LOAD13 Phases=1 Bus1=352.3 kV=0.23 kW=1 PF=0.95
New Load.LOAD14 Phases=1 Bus1=412.2 kV=0.23 kW=1 PF=0.95
New Load.LOAD15 Phases=1 Bus1=433.3 kV=0.23 kW=1 PF=0.95
New Load.LOAD16 Phases=1 Bus1=434.1 kV=0.23 kW=1 PF=0.95
New Load.LOAD17 Phases=1 Bus1=441.2 kV=0.23 kW=1 PF=0.95
New Load.LOAD18 Phases=1 Bus1=442.2 kV=0.23 kW=1 PF=0.95
New Load.LOAD19 Phases=1 Bus1=446.3 kV=0.23 kW=1 PF=0.95
New Load.LOAD20 Phases=1 Bus1=465.3 kV=0.23 kW=1 PF=0.95
New Load.LOAD21 Phases=1 Bus1=481.2 kV=0.23 kW=1 PF=0.95
New Load.LOAD22 Phases=1 Bus1=493.2 kV=0.23 kW=1 PF=0.95
New Load.LOAD23 Phases=1 Bus1=507.2 kV=0.23 kW=1 PF=0.95
New Load.LOAD24 Phases=1 Bus1=518.2 kV=0.23 kW=1 PF=0.95
New Load.LOAD25 Phases=1 Bus1=531.2 kV=0.23 kW=1 PF=0.95
New Load.LOAD26 Phases=1 Bus1=560.2 kV=0.23 kW=1 PF=0.95
New Load.LOAD27 Phases=1 Bus1=590.1 kV=0.23 kW=1 PF=0.95
New Load.LOAD28 Phases=1 Bus1=620.1 kV=0.23 kW=1 PF=0.95
New Load.LOAD29 Phases=1 Bus1=679.3 kV=0.23 kW=1 PF=0.95
New Load.LOAD30 Phases=1 Bus1=700.3 kV=0.23 kW=1 PF=0.95
New Load.LOAD31 Phases=1 Bus1=702.2 kV=0.23 kW=1 PF=0.95
New Load.LOAD32 Phases=1 Bus1=713.3 kV=0.23 kW=1 PF=0.95
New Load.LOAD33 Phases=1 Bus1=748.2 kV=0.23 kW=1 PF=0.95
New Load.LOAD34 Phases=1 Bus1=778.2 kV=0.23 kW=1 PF=0.95
New Load.LOAD35 Phases=1 Bus1=797.3 kV=0.23 kW=1 PF=0.95
New Load.LOAD36 Phases=1 Bus1=822.2 kV=0.23 kW=1 PF=0.95
New Load.LOAD37 Phases=1 Bus1=823.2 kV=0.23 kW=1 PF=0.95
New Load.LOAD38 Phases=1 Bus1=824.3 kV=0.23 kW=1 PF=0.95
New Load.LOAD39 Phases=1 Bus1=840.3 kV=0.23 kW=1 PF=0.95
New Load.LOAD40 Phases=1 Bus1=854.3 kV=0.23 kW=1 PF=0.95
New Load.LOAD41 Phases=1 Bus1=855.2 kV=0.23 kW=1 PF=0.95
New Load.LOAD42 Phases=1 Bus1=866.2 kV=0.23 kW=1 PF=0.95
New Load.LOAD43 Phases=1 Bus1=873.2 kV=0.23 kW=1 PF=0.95
New Load.LOAD44 Phases=1 Bus1=878.2 kV=0.23 kW=1 PF=0.95
New Load.LOAD45 Phases=1 Bus1=890.1 kV=0.23 kW=1 PF=0.95
New Load.LOAD46 Phases=1 Bus1=896.2 kV=0.23 kW=1 PF=0.95
New Load.LOAD47 Phases=1 Bus1=897.2 kV=0.23 kW=1 PF=0.95
New Load.LOAD48 Phases=1 Bus1=920.1 kV=0.23 kW=1 PF=0.95
New Load.LOAD49 Phases=1 Bus1=921.1 kV=0.23 kW=1 PF=0.95
New Load.LOAD50 Phases=1 Bus1=958.1 kV=0.23 kW=1 PF=0.95
New Load.LOAD51 Phases=1 Bus1=968.1 kV=0.23 kW=1 PF=0.95
New Load.LOAD52 Phases=1 Bus1=1012.2 kV=0.23 kW=1 PF=0.95
New Load.LOAD53 Phases=1 Bus1=1025.3 kV=0.23 kW=1 PF=0.95
New Load.LOAD54 Phases=1 Bus1=1026.3 kV=0.23 kW=1 PF=0.95
New Load.LOAD55 Phases=1 Bus1=1045.1 kV=0.23 kW=1 PF=0.95
New Load.LOAD56 Phases=1 Bus1=1046.1 kV=0.23 kW=1 PF=0.95
New Load.LOAD57 Phases=1 Bus1=1070.2 kV=0.23 kW=1 PF=0.95
New Load.LOAD58 Phases=1 Bus1=1071.2 kV=0.23 kW=1 PF=0.95
New Load.LOAD59 Phases=1 Bus1=1114.1 kV=0.23 kW=1 PF=0.95
New Load.LOAD60 Phases=1 Bus1=1119.3 kV=0.23 kW=1 PF=0.95
New Load.LOAD61 Phases=1 Bus1=1120.3 kV=0.23 kW=1 PF=0.95
New Load.LOAD62 Phases=1 Bus1=1125.2 kV=0.23 kW=1 PF=0.95
New Load.LOAD63 Phases=1 Bus1=1126.2 kV=0.23 kW=1 PF=0.95
New Load.LOAD64 Phases=1 Bus1=1159.3 kV=0.23 kW=1 PF=0.95
New Load.LOAD65 Phases=1 Bus1=1165.1 kV=0.23 kW=1 PF=0.95
New Load.LOAD66 Phases=1 Bus1=1174.2 kV=0.23 kW=1 PF=0.95
New Load.LOAD67 Phases=1 Bus1=1192.1 kV=0.23 kW=1 PF=0.95
New Load.LOAD68 Phases=1 Bus1=1201.1 kV=0.23 kW=1 PF=0.95
New Load.LOAD69 Phases=1 Bus1=1211.2 kV=0.23 kW=1 PF=0.95
New Load.LOAD70 Phases=1 Bus1=1252.2 kV=0.23 kW=1 PF=0.95
New Load.LOAD71 Phases=1 Bus1=1253.2 kV=0.23 kW=1 PF=0.95
New Load.LOAD72 Phases=1 Bus1=1254.3 kV=0.23 kW=1 PF=0.95
New Load.LOAD73 Phases=1 Bus1=1255.3 kV=0.23 kW=1 PF=0.95
New Load.LOAD74 Phases=1 Bus1=1281.3 kV=0.23 kW=1 PF=0.95
New Load.LOAD75 Phases=1 Bus1=1282.3 kV=0.23 kW=1 PF=0.95
New Load.LOAD76 Phases=1 Bus1=1316.1 kV=0.23 kW=1 PF=0.95
New Load.LOAD77 Phases=1 Bus1=1317.1 kV=0.23 kW=1 PF=0.95
New Load.LOAD78 Phases=1 Bus1=1319.1 kV=0.23 kW=1 PF=0.95
New Load.LOAD79 Phases=1 Bus1=1334.2 kV=0.23 kW=1 PF=0.95
New Load.LOAD80 Phases=1 Bus1=1335.2 kV=0.23 kW=1 PF=0.95
New Load.LOAD81 Phases=1 Bus1=1344.1 kV=0.23 kW=1 PF=0.95
New Load.LOAD82 Phases=1 Bus1=1345.1 kV=0.23 kW=1 PF=0.95
New Load.LOAD83 Phases=1 Bus1=1355.3 kV=0.23 kW=1 PF=0.95
New Load.LOAD84 Phases=1 Bus1=1369.1 kV=0.23 kW=1 PF=0.95
New Load.LOAD85 Phases=1 Bus1=1371.2 kV=0.23 kW=1 PF=0.95
New Load.LOAD86 Phases=1 Bus1=1397.2 kV=0.23 kW=1 PF=0.95
New Load.LOAD87 Phases=1 Bus1=1413.2 kV=0.23 kW=1 PF=0.95
New Load.LOAD88 Phases=1 Bus1=1419.3 kV=0.23 kW=1 PF=0.95
New Load.LOAD89 Phases=1 Bus1=1420.3 kV=0.23 kW=1 PF=0.95
New Load.LOAD90 Phases=1 Bus1=1436.2 kV=0.23 kW=1 PF=0.95
New Load.LOAD91 Phases=1 Bus1=1449.2 kV=0.23 kW=1 PF=0.95
New Load.LOAD92 Phases=1 Bus1=1478.1 kV=0.23 kW=1 PF=0.95
New Load.LOAD93 Phases=1 Bus1=1486.2 kV=0.23 kW=1 PF=0.95
New Load.LOAD94 Phases=1 Bus1=1488.3 kV=0.23 kW=1 PF=0.95
New Load.LOAD95 Phases=1 Bus1=1504.1 kV=0.23 kW=1 PF=0.95
New Load.LOAD96 Phases=1 Bus1=1514.3 kV=0.23 kW=1 PF=0.95
New Load.LOAD97 Phases=1 Bus1=1515.3 kV=0.23 kW=1 PF=0.95
New Load.LOAD98 Phases=1 Bus1=1530.1 kV=0.23 kW=1 PF=0.95
New Load.LOAD99 Phases=1 Bus1=1552.2 kV=0.23 kW=1 PF=0.95
New Load.LOAD100 Phases=1 Bus1=1601.2 kV=0.23 kW=1 PF=0.95
New Load.LOAD101 Phases=1 Bus1=1611.3 kV=0.23 kW=1 PF=0.95
New Load.LOAD102 Phases=1 Bus1=1626.2 kV=0.23 kW=1 PF=0.95
New Load.LOAD103 Phases=1 Bus1=1652.3 kV=0.23 kW=1 PF=0.95
New Load.LOAD104 Phases=1 Bus1=1678.2 kV=0.23 kW=1 PF=0.95
New Load.LOAD105 Phases=1 Bus1=1681.1 kV=0.23 kW=1 PF=0.95
New Load.LOAD106 Phases=1 Bus1=1685.1 kV=0.23 kW=1 PF=0.95
New Load.LOAD107 Phases=1 Bus1=1687.1 kV=0.23 kW=1 PF=0.95
New Load.LOAD108 Phases=1 Bus1=1689.3 kV=0.23 kW=1 PF=0.95
New Load.LOAD109 Phases=1 Bus1=1695.1 kV=0.23 kW=1 PF=0.95
New Load.LOAD110 Phases=1 Bus1=1703.3 kV=0.23 kW=1 PF=0.95
New Load.LOAD111 Phases=1 Bus1=1709.3 kV=0.23 kW=1 PF=0.95
New Load.LOAD112 Phases=1 Bus1=1726.3 kV=0.23 kW=1 PF=0.95
New Load.LOAD113 Phases=1 Bus1=1741.1 kV=0.23 kW=1 PF=0.95
New Load.LOAD114 Phases=1 Bus1=1764.1 kV=0.23 kW=1 PF=0.95
New Load.LOAD115 Phases=1 Bus1=1782.1 kV=0.23 kW=1 PF=0.95
New Load.LOAD116 Phases=1 Bus1=1797.2 kV=0.23 kW=1 PF=0.95
New Load.LOAD117 Phases=1 Bus1=1808.3 kV=0.23 kW=1 PF=0.95
New Load.LOAD118 Phases=1 Bus1=1811.1 kV=0.23 kW=1 PF=0.95
New Load.LOAD119 Phases=1 Bus1=1894.1 kV=0.23 kW=1 PF=0.95
New Load.LOAD120 Phases=1 Bus1=1902.3 kV=0.23 kW=1 PF=0.95
New Load.LOAD121 Phases=1 Bus1=1929.1 kV=0.23 kW=1 PF=0.95
New Load.LOAD122 Phases=1 Bus1=1939.3 kV=0.23 kW=1 PF=0.95
New Load.LOAD123 Phases=1 Bus1=1944.1 kV=0.23 kW=1 PF=0.95
New Load.LOAD124 Phases=1 Bus1=1969.3 kV=0.23 kW=1 PF=0.95
New Load.LOAD125 Phases=1 Bus1=2019.2 kV=0.23 kW=1 PF=0.95
New Load.LOAD126 Phases=1 Bus1=2021.2 kV=0.23 kW=1 PF=0.95
New Load.LOAD127 Phases=1 Bus1=2110.3 kV=0.23 kW=1 PF=0.95
New Load.LOAD128 Phases=1 Bus1=2157.1 kV=0.23 kW=1 PF=0.95
New Load.LOAD129 Phases=1 Bus1=2163.3 kV=0.23 kW=1 PF=0.95
New Load.LOAD130 Phases=1 Bus1=2183.2 kV=0.23 kW=1 PF=0.95
New Load.LOAD131 Phases=1 Bus1=2190.1 kV=0.23 kW=1 PF=0.95
New Load.LOAD132 Phases=1 Bus1=2192.2 kV=0.23 kW=1 PF=0.95
New Load.LOAD133 Phases=1 Bus1=2194.2 kV=0.23 kW=1 PF=0.95
New Load.LOAD134 Phases=1 Bus1=2216.2 kV=0.23 kW=1 PF=0.95
New Load.LOAD135 Phases=1 Bus1=2243.2 kV=0.23 kW=1 PF=0.95
New Load.LOAD136 Phases=1 Bus1=2279.3 kV=0.23 kW=1 PF=0.95
New Load.LOAD137 Phases=1 Bus1=2280.3 kV=0.23 kW=1 PF=0.95
New Load.LOAD138 Phases=1 Bus1=2288.2 kV=0.23 kW=1 PF=0.95
New Load.LOAD139 Phases=1 Bus1=2298.3 kV=0.23 kW=1 PF=0.95
New Load.LOAD140 Phases=1 Bus1=2300.1 kV=0.23 kW=1 PF=0.95
New Load.LOAD141 Phases=1 Bus1=2306.3 kV=0.23 kW=1 PF=0.95
New Load.LOAD142 Phases=1 Bus1=2328.2 kV=0.23 kW=1 PF=0.95
New Load.LOAD143 Phases=1 Bus1=2330.1 kV=0.23 kW=1 PF=0.95
New Load.LOAD144 Phases=1 Bus1=2369.3 kV=0.23 kW=1 PF=0.95
New Load.LOAD145 Phases=1 Bus1=2371.1 kV=0.23 kW=1 PF=0.95
New Load.LOAD146 Phases=1 Bus1=2379.2 kV=0.23 kW=1 PF=0.95
New Load.LOAD147 Phases=1 Bus1=2429.1 kV=0.23 kW=1 PF=0.95
New Load.LOAD148 Phases=1 Bus1=2464.3 kV=0.23 kW=1 PF=0.95
New Load.LOAD149 Phases=1 Bus1=2465.3 kV=0.23 kW=1 PF=0.95
New Load.LOAD150 Phases=1 Bus1=2469.1 kV=0.23 kW=1 PF=0.95
New Load.LOAD151 Phases=1 Bus1=2471.1 kV=0.23 kW=1 PF=0.95
New Load.LOAD152 Phases=1 Bus1=2472.2 kV=0.23 kW=1 PF=0.95
New Load.LOAD153 Phases=1 Bus1=2483.2 kV=0.23 kW=1 PF=0.95
New Load.LOAD154 Phases=1 Bus1=2494.1 kV=0.23 kW=1 PF=0.95
New Load.LOAD155 Phases=1 Bus1=2513.2 kV=0.23 kW=1 PF=0.95
New Load.LOAD156 Phases=1 Bus1=2517.2 kV=0.23 kW=1 PF=0.95
New Load.LOAD157 Phases=1 Bus1=2535.2 kV=0.23 kW=1 PF=0.95
New Load.LOAD158 Phases=1 Bus1=2548.3 kV=0.23 kW=1 PF=0.95
New Load.LOAD159 Phases=1 Bus1=2575.1 kV=0.23 kW=1 PF=0.95
New Load.LOAD160 Phases=1 Bus1=2577.2 kV=0.23 kW=1 PF=0.95
New Load.LOAD161 Phases=1 Bus1=2586.2 kV=0.23 kW=1 PF=0.95
New Load.LOAD162 Phases=1 Bus1=2596.3 kV=0.23 kW=1 PF=0.95
New Load.LOAD163 Phases=1 Bus1=2598.1 kV=0.23 kW=1 PF=0.95
New Load.LOAD164 Phases=1 Bus1=2603.2 kV=0.23 kW=1 PF=0.95
New Load.LOAD165 Phases=1 Bus1=2615.2 kV=0.23 kW=1 PF=0.95
New Load.LOAD166 Phases=1 Bus1=2633.3 kV=0.23 kW=1 PF=0.95
New Load.LOAD167 Phases=1 Bus1=2654.1 kV=0.23 kW=1 PF=0.95
New Load.LOAD168 Phases=1 Bus1=2672.2 kV=0.23 kW=1 PF=0.95
New Load.LOAD169 Phases=1 Bus1=2683.1 kV=0.23 kW=1 PF=0.95
New Load.LOAD170 Phases=1 Bus1=2712.2 kV=0.23 kW=1 PF=0.95
New Load.LOAD171 Phases=1 Bus1=2724.2 kV=0.23 kW=1 PF=0.95
New Load.LOAD172 Phases=1 Bus1=2729.1 kV=0.23 kW=1 PF=0.95
New Load.LOAD173 Phases=1 Bus1=2753.3 kV=0.23 kW=1 PF=0.95
New Load.LOAD174 Phases=1 Bus1=2754.1 kV=0.23 kW=1 PF=0.95
New Load.LOAD175 Phases=1 Bus1=2755.2 kV=0.23 kW=1 PF=0.95
New Load.LOAD176 Phases=1 Bus1=2757.3 kV=0.23 kW=1 PF=0.95
New Load.LOAD177 Phases=1 Bus1=2759.1 kV=0.23 kW=1 PF=0.95
New Load.LOAD178 Phases=1 Bus1=2781.2 kV=0.23 kW=1 PF=0.95
New Load.LOAD179 Phases=1 Bus1=2785.3 kV=0.23 kW=1 PF=0.95
New Load.LOAD180 Phases=1 Bus1=2787.3 kV=0.23 kW=1 PF=0.95
New Load.LOAD181 Phases=1 Bus1=2792.3 kV=0.23 kW=1 PF=0.95
New Load.LOAD182 Phases=1 Bus1=2803.3 kV=0.23 kW=1 PF=0.95
New Load.LOAD183 Phases=1 Bus1=2804.2 kV=0.23 kW=1 PF=0.95
New Load.LOAD184 Phases=1 Bus1=2815.3 kV=0.23 kW=1 PF=0.95
New Load.LOAD185 Phases=1 Bus1=2816.2 kV=0.23 kW=1 PF=0.95
New Load.LOAD186 Phases=1 Bus1=2824.1 kV=0.23 kW=1 PF=0.95
New Load.LOAD187 Phases=1 Bus1=2831.2 kV=0.23 kW=1 PF=0.95
New Load.LOAD188 Phases=1 Bus1=2837.3 kV=0.23 kW=1 PF=0.95
